<?xml version="1.0" encoding="UTF-8"?>

<!-- generated on 2023-12-09 13:33:30 by Eclipse SUMO netedit Version 1.17.0
<configuration xmlns:xsi="http://www.w3.org/2001/XMLSchema-instance" xsi:noNamespaceSchemaLocation="http://sumo.dlr.de/xsd/netconvertConfiguration.xsd">

    <input>
        <sumo-net-file value="C:\Users\skang\signal\sumo-rl\nets\Gangnam\gangnam1.net.xml"/>
    </input>

    <output>
        <output-file value="C:\Users\skang\signal\sumo-rl\nets\Gangnam\gangnam1.net.xml"/>
    </output>

    <processing>
        <geometry.min-radius.fix.railways value="false"/>
        <geometry.max-grade.fix value="false"/>
        <offset.disable-normalization value="true"/>
        <lefthand value="0"/>
    </processing>

    <junctions>
        <no-turnarounds value="true"/>
        <junctions.corner-detail value="5"/>
        <junctions.limit-turn-speed value="5.50"/>
        <rectangular-lane-cut value="0"/>
    </junctions>

    <pedestrian>
        <walkingareas value="0"/>
    </pedestrian>

</configuration>
-->

<net version="1.16" junctionCornerDetail="5" limitTurnSpeed="5.50" xmlns:xsi="http://www.w3.org/2001/XMLSchema-instance" xsi:noNamespaceSchemaLocation="http://sumo.dlr.de/xsd/net_file.xsd">

    <location netOffset="-324525.23,-4150247.69" convBoundary="0.00,186.18,5999.41,5730.51" origBoundary="127.014279,37.482803,127.082730,37.534434" projParameter="+proj=utm +zone=52 +ellps=WGS84 +datum=WGS84 +units=m +no_defs"/>

    <edge id=":1210002000_0" function="internal">
        <lane id=":1210002000_0_0" index="0" speed="22.22" length="3.57" shape="156.21,4603.60 153.48,4601.12"/>
        <lane id=":1210002000_0_1" index="1" speed="22.22" length="3.57" shape="158.33,4601.20 155.66,4598.77"/>
        <lane id=":1210002000_0_2" index="2" speed="22.22" length="3.57" shape="160.46,4598.81 157.84,4596.43"/>
        <lane id=":1210002000_0_3" index="3" speed="22.22" length="3.57" shape="162.58,4596.41 160.02,4594.09"/>
    </edge>
    <edge id=":1210002000_4" function="internal">
        <lane id=":1210002000_4_0" index="0" speed="8.76" length="37.48" shape="162.58,4596.41 159.63,4585.23 161.48,4578.30 168.14,4575.62 179.60,4577.20"/>
    </edge>
    <edge id=":1210024100_0" function="internal">
        <lane id=":1210024100_0_0" index="0" speed="6.59" length="7.27" shape="1678.50,217.66 1676.57,217.64 1674.95,218.16 1673.62,219.24 1672.59,220.87"/>
        <lane id=":1210024100_0_1" index="1" speed="8.11" length="11.42" shape="1678.96,214.50 1675.94,214.45 1673.38,215.28 1671.30,216.97 1669.69,219.53"/>
        <lane id=":1210024100_0_2" index="2" speed="8.81" length="13.63" shape="1678.96,214.50 1674.52,214.19 1671.00,214.70 1668.42,216.04 1666.78,218.20"/>
        <lane id=":1210024100_0_3" index="3" speed="9.51" length="16.03" shape="1678.96,214.50 1673.10,213.92 1668.63,214.13 1665.55,215.11 1663.87,216.87"/>
        <lane id=":1210024100_0_4" index="4" speed="10.20" length="18.58" shape="1678.96,214.50 1671.68,213.66 1666.25,213.55 1662.68,214.17 1660.96,215.53"/>
    </edge>
    <edge id=":1210024100_5" function="internal">
        <lane id=":1210024100_5_0" index="0" speed="8.96" length="39.73" shape="1678.96,214.50 1669.86,206.29 1667.48,199.06 1671.84,192.83 1682.92,187.58"/>
    </edge>
    <edge id=":1210024100_6" function="internal">
        <lane id=":1210024100_6_0" index="0" speed="13.89" length="51.59" shape="1638.42,205.19 1645.09,195.60 1654.73,189.48 1667.34,186.80 1682.92,187.58"/>
    </edge>
    <edge id=":1210024100_7" function="internal">
        <lane id=":1210024100_7_0" index="0" speed="6.84" length="22.20" shape="1647.14,209.19 1652.98,205.59 1657.22,205.45 1659.88,208.76 1660.96,215.53"/>
    </edge>
    <edge id=":1210024700_0" function="internal">
        <lane id=":1210024700_0_0" index="0" speed="15.28" length="7.93" shape="1838.25,241.56 1830.49,239.99"/>
        <lane id=":1210024700_0_1" index="1" speed="15.28" length="7.93" shape="1838.73,238.40 1830.95,236.82"/>
    </edge>
    <edge id=":1210024700_2" function="internal">
        <lane id=":1210024700_2_0" index="0" speed="6.84" length="19.02" shape="1839.69,232.07 1834.63,227.45 1833.33,223.41 1835.78,219.94 1839.11,218.39"/>
    </edge>
    <edge id=":1210024700_8" function="internal">
        <lane id=":1210024700_8_0" index="0" speed="6.84" length="3.18" shape="1839.11,218.39 1841.99,217.04"/>
    </edge>
    <edge id=":1210024700_3" function="internal">
        <lane id=":1210024700_3_0" index="0" speed="13.89" length="9.12" shape="1834.90,209.92 1837.47,209.72 1839.17,208.73 1840.87,207.73 1843.44,207.55"/>
        <lane id=":1210024700_3_1" index="1" speed="13.89" length="9.12" shape="1834.90,209.92 1842.96,210.72"/>
        <lane id=":1210024700_3_2" index="2" speed="13.89" length="9.12" shape="1834.90,209.92 1837.27,210.71 1838.69,211.89 1840.10,213.08 1842.47,213.88"/>
        <lane id=":1210024700_3_3" index="3" speed="13.89" length="9.12" shape="1834.90,209.92 1837.40,211.23 1838.44,213.47 1839.48,215.71 1841.99,217.04"/>
    </edge>
    <edge id=":1210024700_7" function="internal">
        <lane id=":1210024700_7_0" index="0" speed="8.96" length="36.39" shape="1834.90,209.92 1844.00,218.12 1846.38,225.35 1842.03,231.58 1833.96,235.40"/>
    </edge>
    <edge id=":1210024700_9" function="internal">
        <lane id=":1210024700_9_0" index="0" speed="8.96" length="3.32" shape="1833.96,235.40 1830.95,236.82"/>
    </edge>
    <edge id=":1210024701_0" function="internal">
        <lane id=":1210024701_0_0" index="0" speed="15.28" length="0.10" shape="1862.57,245.28 1862.57,245.28"/>
        <lane id=":1210024701_0_1" index="1" speed="15.28" length="0.10" shape="1863.05,242.12 1863.05,242.12"/>
        <lane id=":1210024701_0_2" index="2" speed="15.28" length="0.10" shape="1863.53,238.95 1863.53,238.95"/>
        <lane id=":1210024701_0_3" index="3" speed="15.28" length="0.10" shape="1864.02,235.79 1864.02,235.79"/>
    </edge>
    <edge id=":1210024701_4" function="internal">
        <lane id=":1210024701_4_0" index="0" speed="6.84" length="11.11" shape="1864.02,235.79 1858.96,231.17 1857.65,227.12"/>
    </edge>
    <edge id=":1210024701_10" function="internal">
        <lane id=":1210024701_10_0" index="0" speed="6.84" length="11.11" shape="1857.65,227.12 1860.11,223.65 1866.32,220.76"/>
    </edge>
    <edge id=":1210024701_5" function="internal">
        <lane id=":1210024701_5_0" index="0" speed="15.28" length="0.10" shape="1867.77,211.27 1867.77,211.27"/>
        <lane id=":1210024701_5_1" index="1" speed="15.28" length="0.10" shape="1867.29,214.43 1867.29,214.43"/>
        <lane id=":1210024701_5_2" index="2" speed="15.28" length="0.10" shape="1866.80,217.60 1866.81,217.60"/>
        <lane id=":1210024701_5_3" index="3" speed="15.28" length="0.10" shape="1866.32,220.76 1866.32,220.76"/>
    </edge>
    <edge id=":1210024701_9" function="internal">
        <lane id=":1210024701_9_0" index="0" speed="6.84" length="11.11" shape="1866.32,220.76 1871.38,225.38 1872.69,229.43"/>
    </edge>
    <edge id=":1210024701_11" function="internal">
        <lane id=":1210024701_11_0" index="0" speed="6.84" length="11.11" shape="1872.69,229.43 1870.23,232.90 1864.02,235.79"/>
    </edge>
    <edge id=":1210025100_0" function="internal">
        <lane id=":1210025100_0_0" index="0" speed="6.51" length="9.03" shape="2040.17,272.44 2037.69,272.41 2035.80,273.19 2034.50,274.76 2033.78,277.13"/>
    </edge>
    <edge id=":1210025100_1" function="internal">
        <lane id=":1210025100_1_0" index="0" speed="13.89" length="26.40" shape="2040.17,272.44 2014.07,268.45"/>
        <lane id=":1210025100_1_1" index="1" speed="13.89" length="26.40" shape="2040.65,269.27 2014.55,265.28"/>
        <lane id=":1210025100_1_2" index="2" speed="13.89" length="26.40" shape="2041.13,266.11 2015.04,262.12"/>
        <lane id=":1210025100_1_3" index="3" speed="13.89" length="26.40" shape="2041.62,262.95 2015.52,258.96"/>
    </edge>
    <edge id=":1210025100_5" function="internal">
        <lane id=":1210025100_5_0" index="0" speed="6.84" length="18.81" shape="2041.62,262.95 2036.56,258.33 2035.25,254.29 2037.71,250.82 2040.84,249.36"/>
    </edge>
    <edge id=":1210025100_17" function="internal">
        <lane id=":1210025100_17_0" index="0" speed="6.84" length="3.39" shape="2040.84,249.36 2043.91,247.92"/>
    </edge>
    <edge id=":1210025100_6" function="internal">
        <lane id=":1210025100_6_0" index="0" speed="15.28" length="26.40" shape="2019.27,234.44 2045.37,238.43"/>
        <lane id=":1210025100_6_1" index="1" speed="15.28" length="26.40" shape="2018.79,237.61 2044.88,241.60"/>
        <lane id=":1210025100_6_2" index="2" speed="15.28" length="26.40" shape="2018.30,240.77 2044.40,244.76"/>
        <lane id=":1210025100_6_3" index="3" speed="15.28" length="26.40" shape="2017.82,243.93 2043.91,247.92"/>
    </edge>
    <edge id=":1210025100_10" function="internal">
        <lane id=":1210025100_10_0" index="0" speed="12.50" length="23.16" shape="2017.82,243.93 2026.53,247.19 2032.09,253.80 2033.32,258.88"/>
    </edge>
    <edge id=":1210025100_11" function="internal">
        <lane id=":1210025100_11_0" index="0" speed="6.84" length="18.81" shape="2017.82,243.93 2022.88,248.55 2024.18,252.59 2021.73,256.06 2018.59,257.52"/>
    </edge>
    <edge id=":1210025100_18" function="internal">
        <lane id=":1210025100_18_0" index="0" speed="12.50" length="18.41" shape="2033.32,258.88 2034.51,263.78 2033.78,277.13"/>
    </edge>
    <edge id=":1210025100_19" function="internal">
        <lane id=":1210025100_19_0" index="0" speed="6.84" length="3.39" shape="2018.59,257.52 2015.52,258.96"/>
    </edge>
    <edge id=":1210025100_12" function="internal">
        <lane id=":1210025100_12_0" index="0" speed="6.51" length="9.03" shape="2018.76,274.83 2018.78,272.35 2018.01,270.47 2016.44,269.16 2014.07,268.45"/>
        <lane id=":1210025100_12_1" index="1" speed="7.33" length="11.73" shape="2018.76,274.83 2019.00,270.97 2018.37,268.09 2016.89,266.20 2014.55,265.28"/>
    </edge>
    <edge id=":1210025100_14" function="internal">
        <lane id=":1210025100_14_0" index="0" speed="11.11" length="44.35" shape="2018.76,274.83 2022.27,260.49 2027.71,250.71 2035.09,245.46 2044.40,244.76"/>
        <lane id=":1210025100_14_1" index="1" speed="11.11" length="41.57" shape="2018.76,274.83 2022.06,261.88 2027.35,253.08 2034.63,248.43 2043.91,247.92"/>
    </edge>
    <edge id=":1210025100_16" function="internal">
        <lane id=":1210025100_16_0" index="0" speed="6.84" length="22.20" shape="2018.76,274.83 2023.38,269.77 2027.42,268.47 2030.89,270.92 2033.78,277.13"/>
    </edge>
    <edge id=":1210025101_0" function="internal">
        <lane id=":1210025101_0_0" index="0" speed="8.32" length="14.63" shape="2131.70,298.45 2131.79,293.21 2131.08,289.35 2129.57,286.87 2127.26,285.77"/>
        <lane id=":1210025101_0_1" index="1" speed="9.04" length="17.45" shape="2131.70,298.45 2131.92,291.82 2131.34,286.96 2129.94,283.89 2127.74,282.60"/>
    </edge>
    <edge id=":1210025101_2" function="internal">
        <lane id=":1210025101_2_0" index="0" speed="12.50" length="50.51" shape="2131.70,298.45 2134.57,281.24 2139.85,269.44 2147.53,263.06 2157.63,262.08"/>
        <lane id=":1210025101_2_1" index="1" speed="12.50" length="47.57" shape="2131.70,298.45 2134.44,282.64 2139.59,271.83 2147.16,266.03 2157.15,265.24"/>
    </edge>
    <edge id=":1210025101_4" function="internal">
        <lane id=":1210025101_4_0" index="0" speed="6.98" length="23.21" shape="2131.70,298.45 2134.32,291.78 2137.78,289.00 2142.09,290.10 2147.23,295.08"/>
    </edge>
    <edge id=":1210025101_5" function="internal">
        <lane id=":1210025101_5_0" index="0" speed="6.48" length="9.43" shape="2153.40,289.76 2150.89,289.77 2149.03,290.66 2147.81,292.43 2147.23,295.08"/>
    </edge>
    <edge id=":1210025101_6" function="internal">
        <lane id=":1210025101_6_0" index="0" speed="15.28" length="26.44" shape="2153.40,289.76 2127.26,285.77"/>
        <lane id=":1210025101_6_1" index="1" speed="15.28" length="26.44" shape="2153.88,286.60 2127.74,282.60"/>
        <lane id=":1210025101_6_2" index="2" speed="15.28" length="26.44" shape="2154.36,283.44 2128.23,279.44"/>
        <lane id=":1210025101_6_3" index="3" speed="15.28" length="26.44" shape="2154.85,280.28 2128.71,276.28"/>
    </edge>
    <edge id=":1210025101_10" function="internal">
        <lane id=":1210025101_10_0" index="0" speed="6.84" length="18.82" shape="2154.85,280.28 2149.79,275.65 2148.48,271.61 2150.94,268.14 2154.08,266.68"/>
    </edge>
    <edge id=":1210025101_17" function="internal">
        <lane id=":1210025101_17_0" index="0" speed="6.84" length="3.39" shape="2154.08,266.68 2157.15,265.24"/>
    </edge>
    <edge id=":1210025101_11" function="internal">
        <lane id=":1210025101_11_0" index="0" speed="15.28" length="26.44" shape="2132.46,251.75 2158.60,255.75"/>
        <lane id=":1210025101_11_1" index="1" speed="15.28" length="26.44" shape="2131.98,254.92 2158.12,258.92"/>
        <lane id=":1210025101_11_2" index="2" speed="15.28" length="26.44" shape="2131.49,258.08 2157.63,262.08"/>
        <lane id=":1210025101_11_3" index="3" speed="15.28" length="26.44" shape="2131.01,261.24 2157.15,265.24"/>
    </edge>
    <edge id=":1210025101_15" function="internal">
        <lane id=":1210025101_15_0" index="0" speed="11.11" length="22.42" shape="2131.01,261.24 2139.08,264.44 2144.47,271.14 2145.79,276.11"/>
    </edge>
    <edge id=":1210025101_16" function="internal">
        <lane id=":1210025101_16_0" index="0" speed="6.84" length="18.82" shape="2131.01,261.24 2136.07,265.86 2137.38,269.91 2134.92,273.38 2131.78,274.84"/>
    </edge>
    <edge id=":1210025101_18" function="internal">
        <lane id=":1210025101_18_0" index="0" speed="11.11" length="19.15" shape="2145.79,276.11 2147.19,281.36 2147.23,295.08"/>
    </edge>
    <edge id=":1210025101_19" function="internal">
        <lane id=":1210025101_19_0" index="0" speed="6.84" length="3.39" shape="2131.78,274.84 2128.71,276.28"/>
    </edge>
    <edge id=":1210026200_0" function="internal">
        <lane id=":1210026200_0_0" index="0" speed="6.31" length="9.04" shape="2326.54,316.10 2324.02,316.09 2322.19,316.91 2321.03,318.56 2320.56,321.02"/>
    </edge>
    <edge id=":1210026200_1" function="internal">
        <lane id=":1210026200_1_0" index="0" speed="15.28" length="39.31" shape="2326.54,316.10 2287.62,310.30"/>
        <lane id=":1210026200_1_1" index="1" speed="15.28" length="39.31" shape="2327.00,312.93 2288.10,307.14"/>
        <lane id=":1210026200_1_2" index="2" speed="15.28" length="39.31" shape="2327.46,309.77 2288.59,303.97"/>
        <lane id=":1210026200_1_3" index="3" speed="15.28" length="39.31" shape="2327.92,306.60 2289.07,300.81"/>
    </edge>
    <edge id=":1210026200_5" function="internal">
        <lane id=":1210026200_5_0" index="0" speed="15.28" length="39.14" shape="2292.82,276.29 2331.50,282.06"/>
        <lane id=":1210026200_5_1" index="1" speed="15.28" length="39.14" shape="2292.34,279.45 2331.04,285.23"/>
        <lane id=":1210026200_5_2" index="2" speed="15.28" length="39.14" shape="2291.85,282.62 2330.58,288.40"/>
        <lane id=":1210026200_5_3" index="3" speed="15.28" length="39.14" shape="2291.37,285.78 2330.12,291.56"/>
    </edge>
    <edge id=":1210026200_9" function="internal">
        <lane id=":1210026200_9_0" index="0" speed="15.06" length="48.70" shape="2291.37,285.78 2303.29,289.55 2311.60,296.65 2316.29,307.09 2317.36,320.87"/>
        <lane id=":1210026200_9_1" index="1" speed="14.70" length="46.40" shape="2291.37,285.78 2301.90,289.36 2309.21,296.37 2313.30,306.83 2314.17,320.72"/>
    </edge>
    <edge id=":1210026200_11" function="internal">
        <lane id=":1210026200_11_0" index="0" speed="7.61" length="11.72" shape="2292.59,319.69 2292.43,315.89 2291.55,313.06 2289.95,311.20 2287.62,310.30"/>
        <lane id=":1210026200_11_1" index="1" speed="8.92" length="16.47" shape="2295.78,319.84 2295.51,314.76 2294.14,310.94 2291.67,308.40 2288.10,307.14"/>
        <lane id=":1210026200_11_2" index="2" speed="9.56" length="19.07" shape="2295.78,319.84 2295.60,313.35 2294.33,308.55 2292.00,305.42 2288.59,303.97"/>
    </edge>
    <edge id=":1210026200_14" function="internal">
        <lane id=":1210026200_14_0" index="0" speed="13.89" length="53.63" shape="2298.98,319.99 2300.96,304.09 2306.01,293.55 2315.44,288.33 2330.58,288.40"/>
        <lane id=":1210026200_14_1" index="1" speed="13.89" length="50.59" shape="2298.98,319.99 2301.06,305.21 2306.27,295.74 2315.63,291.29 2330.12,291.56"/>
    </edge>
    <edge id=":1210028400_0" function="internal">
        <lane id=":1210028400_0_0" index="0" speed="6.58" length="9.21" shape="1501.57,711.55 1499.05,711.07 1496.99,711.48 1495.39,712.79 1494.25,714.98"/>
        <lane id=":1210028400_0_1" index="1" speed="7.39" length="11.91" shape="1501.57,711.55 1497.72,710.62 1494.71,710.71 1492.55,711.82 1491.22,713.95"/>
    </edge>
    <edge id=":1210028400_2" function="internal">
        <lane id=":1210028400_2_0" index="0" speed="11.11" length="47.66" shape="1501.57,711.55 1486.63,705.10 1476.99,697.61 1472.65,689.08 1473.62,679.52"/>
        <lane id=":1210028400_2_1" index="1" speed="11.11" length="44.82" shape="1501.57,711.55 1487.96,705.55 1479.26,698.39 1475.49,690.08 1476.63,680.60"/>
    </edge>
    <edge id=":1210028400_4" function="internal">
        <lane id=":1210028400_4_0" index="0" speed="6.84" length="22.20" shape="1501.57,711.55 1497.38,706.13 1496.80,701.92 1499.81,698.93 1506.43,697.15"/>
    </edge>
    <edge id=":1210028400_5" function="internal">
        <lane id=":1210028400_5_0" index="0" speed="6.47" length="9.03" shape="1502.99,690.05 1502.49,692.48 1502.90,694.47 1504.21,696.03 1506.43,697.15"/>
    </edge>
    <edge id=":1210028400_6" function="internal">
        <lane id=":1210028400_6_0" index="0" speed="13.89" length="26.52" shape="1502.99,690.05 1494.25,714.98"/>
        <lane id=":1210028400_6_1" index="1" speed="13.89" length="26.52" shape="1499.98,688.97 1491.22,713.95"/>
        <lane id=":1210028400_6_2" index="2" speed="13.89" length="26.52" shape="1496.97,687.89 1488.20,712.91"/>
        <lane id=":1210028400_6_3" index="3" speed="13.89" length="26.52" shape="1493.95,686.81 1485.17,711.88"/>
        <lane id=":1210028400_6_4" index="4" speed="13.89" length="26.52" shape="1490.94,685.73 1482.14,710.84"/>
    </edge>
    <edge id=":1210028400_11" function="internal">
        <lane id=":1210028400_11_0" index="0" speed="6.84" length="18.89" shape="1490.94,685.73 1485.44,689.81 1481.22,690.32 1478.28,687.25 1477.43,683.82"/>
    </edge>
    <edge id=":1210028400_18" function="internal">
        <lane id=":1210028400_18_0" index="0" speed="6.84" length="3.32" shape="1477.43,683.82 1476.63,680.60"/>
    </edge>
    <edge id=":1210028400_12" function="internal">
        <lane id=":1210028400_12_0" index="0" speed="13.89" length="27.18" shape="1455.65,701.78 1458.73,694.34 1461.55,689.54 1464.41,684.76 1467.59,677.36"/>
        <lane id=":1210028400_12_1" index="1" speed="13.89" length="27.18" shape="1458.68,702.82 1461.75,695.39 1464.57,690.60 1467.43,685.83 1470.61,678.44"/>
        <lane id=":1210028400_12_2" index="2" speed="13.89" length="27.18" shape="1461.71,703.85 1464.78,696.44 1467.59,691.66 1470.45,686.90 1473.62,679.52"/>
        <lane id=":1210028400_12_3" index="3" speed="13.89" length="27.18" shape="1464.74,704.89 1467.80,697.48 1470.61,692.72 1473.46,687.96 1476.63,680.60"/>
    </edge>
    <edge id=":1210028400_16" function="internal">
        <lane id=":1210028400_16_0" index="0" speed="11.11" length="22.75" shape="1467.76,705.92 1472.69,698.04 1480.77,693.95 1485.17,693.83"/>
    </edge>
    <edge id=":1210028400_17" function="internal">
        <lane id=":1210028400_17_0" index="0" speed="6.84" length="18.81" shape="1467.76,705.92 1473.20,701.76 1477.41,701.19 1480.39,704.22 1481.28,707.57"/>
    </edge>
    <edge id=":1210028400_19" function="internal">
        <lane id=":1210028400_19_0" index="0" speed="11.11" length="21.68" shape="1485.17,693.83 1492.02,693.65 1506.43,697.15"/>
    </edge>
    <edge id=":1210028400_20" function="internal">
        <lane id=":1210028400_20_0" index="0" speed="6.84" length="3.38" shape="1481.28,707.57 1482.14,710.84"/>
    </edge>
    <edge id=":1210028900_0" function="internal">
        <lane id=":1210028900_0_0" index="0" speed="7.57" length="12.24" shape="1478.33,778.82 1474.35,777.83 1471.23,777.86 1468.96,778.91 1467.54,780.99"/>
        <lane id=":1210028900_0_1" index="1" speed="8.88" length="17.22" shape="1479.37,775.80 1474.04,774.55 1469.80,774.80 1466.64,776.57 1464.55,779.84"/>
        <lane id=":1210028900_0_2" index="2" speed="9.52" length="19.95" shape="1479.37,775.80 1472.72,774.08 1467.54,774.00 1463.82,775.53 1461.56,778.69"/>
    </edge>
    <edge id=":1210028900_3" function="internal">
        <lane id=":1210028900_3_0" index="0" speed="13.89" length="54.58" shape="1480.40,772.77 1464.40,765.50 1454.22,756.62 1449.88,746.15 1451.37,734.08"/>
        <lane id=":1210028900_3_1" index="1" speed="13.89" length="51.84" shape="1480.40,772.77 1465.72,765.95 1456.49,757.40 1452.72,747.12 1454.39,735.12"/>
        <lane id=":1210028900_3_2" index="2" speed="13.89" length="49.14" shape="1480.40,772.77 1467.05,766.40 1458.76,758.18 1455.56,748.10 1457.42,736.15"/>
    </edge>
    <edge id=":1210028900_6" function="internal">
        <lane id=":1210028900_6_0" index="0" speed="6.84" length="22.21" shape="1480.40,772.77 1476.24,767.33 1475.67,763.12 1478.70,760.13 1485.32,758.38"/>
    </edge>
    <edge id=":1210028900_7" function="internal">
        <lane id=":1210028900_7_0" index="0" speed="6.51" length="9.03" shape="1483.91,745.22 1483.45,747.65 1483.87,749.64 1485.19,751.20 1487.40,752.33"/>
    </edge>
    <edge id=":1210028900_8" function="internal">
        <lane id=":1210028900_8_0" index="0" speed="13.89" length="38.97" shape="1480.88,744.18 1467.54,780.99"/>
        <lane id=":1210028900_8_1" index="1" speed="13.89" length="38.97" shape="1477.85,743.14 1464.55,779.84"/>
        <lane id=":1210028900_8_2" index="2" speed="13.89" length="38.97" shape="1474.83,742.11 1461.56,778.69"/>
        <lane id=":1210028900_8_3" index="3" speed="13.89" length="38.97" shape="1471.80,741.07 1458.58,777.55"/>
    </edge>
    <edge id=":1210028900_12" function="internal">
        <lane id=":1210028900_12_0" index="0" speed="6.84" length="22.19" shape="1471.80,741.07 1466.36,745.23 1462.15,745.80 1459.17,742.78 1457.42,736.15"/>
    </edge>
    <edge id=":1210028900_13" function="internal">
        <lane id=":1210028900_13_0" index="0" speed="13.89" length="38.00" shape="1432.44,767.51 1445.31,732.01"/>
        <lane id=":1210028900_13_1" index="1" speed="13.89" length="38.00" shape="1435.42,768.66 1448.34,733.05"/>
        <lane id=":1210028900_13_2" index="2" speed="13.89" length="38.00" shape="1438.41,769.81 1451.37,734.08"/>
        <lane id=":1210028900_13_3" index="3" speed="13.89" length="38.00" shape="1441.40,770.95 1454.39,735.12"/>
        <lane id=":1210028900_13_4" index="4" speed="13.89" length="38.00" shape="1444.39,772.10 1457.42,736.15"/>
    </edge>
    <edge id=":1210028900_18" function="internal">
        <lane id=":1210028900_18_0" index="0" speed="13.89" length="51.07" shape="1444.39,772.10 1450.97,760.74 1460.16,754.17 1471.95,752.37 1486.36,755.35"/>
        <lane id=":1210028900_18_1" index="1" speed="13.89" length="48.65" shape="1444.39,772.10 1450.47,762.05 1459.32,756.42 1470.94,755.20 1485.32,758.38"/>
    </edge>
    <edge id=":1210028900_20" function="internal">
        <lane id=":1210028900_20_0" index="0" speed="6.84" length="22.19" shape="1444.39,772.10 1449.98,768.14 1454.20,767.73 1457.07,770.86 1458.58,777.55"/>
    </edge>
    <edge id=":1210029200_0" function="internal">
        <lane id=":1210029200_0_0" index="0" speed="6.55" length="9.18" shape="1455.54,828.91 1453.04,828.39 1450.98,828.77 1449.37,830.05 1448.21,832.24"/>
        <lane id=":1210029200_0_1" index="1" speed="7.37" length="11.89" shape="1455.54,828.91 1451.72,827.92 1448.72,827.96 1446.55,829.04 1445.19,831.16"/>
    </edge>
    <edge id=":1210029200_2" function="internal">
        <lane id=":1210029200_2_0" index="0" speed="11.11" length="47.73" shape="1455.54,828.91 1440.71,822.17 1431.22,814.48 1427.07,805.85 1428.26,796.27"/>
        <lane id=":1210029200_2_1" index="1" speed="11.11" length="44.89" shape="1455.54,828.91 1442.03,822.64 1433.47,815.30 1429.88,806.90 1431.24,797.42"/>
        <lane id=":1210029200_2_2" index="2" speed="11.11" length="42.08" shape="1455.54,828.91 1443.34,823.12 1435.73,816.13 1432.69,807.95 1434.23,798.56"/>
    </edge>
    <edge id=":1210029200_5" function="internal">
        <lane id=":1210029200_5_0" index="0" speed="6.84" length="22.19" shape="1455.54,828.91 1451.46,823.42 1450.95,819.20 1454.02,816.26 1460.67,814.61"/>
    </edge>
    <edge id=":1210029200_6" function="internal">
        <lane id=":1210029200_6_0" index="0" speed="6.46" length="9.03" shape="1457.38,807.45 1456.83,809.87 1457.19,811.87 1458.47,813.45 1460.67,814.61"/>
    </edge>
    <edge id=":1210029200_7" function="internal">
        <lane id=":1210029200_7_0" index="0" speed="15.28" length="26.55" shape="1457.38,807.45 1448.21,832.24"/>
        <lane id=":1210029200_7_1" index="1" speed="15.28" length="26.55" shape="1454.39,806.30 1445.19,831.16"/>
        <lane id=":1210029200_7_2" index="2" speed="15.28" length="26.55" shape="1451.41,805.15 1442.18,830.09"/>
        <lane id=":1210029200_7_3" index="3" speed="15.28" length="26.55" shape="1448.42,804.01 1439.16,829.02"/>
    </edge>
    <edge id=":1210029200_11" function="internal">
        <lane id=":1210029200_11_0" index="0" speed="6.84" length="18.79" shape="1448.42,804.01 1442.83,807.97 1438.60,808.38 1435.74,805.25 1434.98,801.89"/>
    </edge>
    <edge id=":1210029200_19" function="internal">
        <lane id=":1210029200_19_0" index="0" speed="6.84" length="3.41" shape="1434.98,801.89 1434.23,798.56"/>
    </edge>
    <edge id=":1210029200_12" function="internal">
        <lane id=":1210029200_12_0" index="0" speed="15.28" length="27.35" shape="1415.81,820.69 1418.07,812.86 1418.93,807.29 1419.84,801.74 1422.28,793.98"/>
        <lane id=":1210029200_12_1" index="1" speed="15.28" length="27.35" shape="1418.82,821.77 1421.08,813.96 1421.93,808.40 1422.84,802.87 1425.27,795.12"/>
        <lane id=":1210029200_12_2" index="2" speed="15.28" length="27.35" shape="1421.83,822.84 1424.08,815.05 1424.93,809.51 1425.83,803.99 1428.26,796.27"/>
        <lane id=":1210029200_12_3" index="3" speed="15.28" length="27.35" shape="1424.85,823.91 1427.09,816.15 1427.93,810.62 1428.83,805.12 1431.24,797.42"/>
        <lane id=":1210029200_12_4" index="4" speed="15.28" length="27.35" shape="1424.85,823.91 1434.23,798.56"/>
    </edge>
    <edge id=":1210029200_17" function="internal">
        <lane id=":1210029200_17_0" index="0" speed="12.50" length="23.37" shape="1424.85,823.91 1429.71,815.97 1437.30,811.77 1442.67,811.53"/>
    </edge>
    <edge id=":1210029200_18" function="internal">
        <lane id=":1210029200_18_0" index="0" speed="6.84" length="18.82" shape="1424.85,823.91 1430.34,819.82 1434.56,819.31 1437.50,822.37 1438.34,825.74"/>
    </edge>
    <edge id=":1210029200_20" function="internal">
        <lane id=":1210029200_20_0" index="0" speed="12.50" length="18.41" shape="1442.67,811.53 1447.62,811.32 1460.67,814.61"/>
    </edge>
    <edge id=":1210029200_21" function="internal">
        <lane id=":1210029200_21_0" index="0" speed="6.84" length="3.37" shape="1438.34,825.74 1439.16,829.02"/>
    </edge>
    <edge id=":1210029201_0" function="internal">
        <lane id=":1210029201_0_0" index="0" speed="15.28" length="8.64" shape="1395.20,980.98 1394.85,983.47 1395.37,985.29 1395.89,987.11 1395.53,989.59"/>
        <lane id=":1210029201_0_1" index="1" speed="15.28" length="8.64" shape="1392.19,979.91 1391.83,982.40 1392.35,984.21 1392.87,986.03 1392.52,988.52"/>
        <lane id=":1210029201_0_2" index="2" speed="15.28" length="8.64" shape="1389.17,978.84 1388.82,981.32 1389.34,983.14 1389.86,984.96 1389.50,987.45"/>
        <lane id=":1210029201_0_3" index="3" speed="15.28" length="8.64" shape="1386.16,977.76 1385.80,980.25 1386.32,982.07 1386.84,983.89 1386.49,986.37"/>
        <lane id=":1210029201_0_4" index="4" speed="15.28" length="8.64" shape="1386.16,977.76 1383.47,985.30"/>
    </edge>
    <edge id=":1210029201_5" function="internal">
        <lane id=":1210029201_5_0" index="0" speed="6.84" length="18.80" shape="1386.16,977.76 1380.67,981.85 1376.45,982.37 1373.51,979.30 1372.67,975.95"/>
    </edge>
    <edge id=":1210029201_11" function="internal">
        <lane id=":1210029201_11_0" index="0" speed="6.84" length="3.39" shape="1372.67,975.95 1371.85,972.66"/>
    </edge>
    <edge id=":1210029201_6" function="internal">
        <lane id=":1210029201_6_0" index="0" speed="15.28" length="8.00" shape="1360.12,976.98 1362.80,969.44"/>
        <lane id=":1210029201_6_1" index="1" speed="15.28" length="8.00" shape="1363.13,978.05 1365.82,970.51"/>
        <lane id=":1210029201_6_2" index="2" speed="15.28" length="8.00" shape="1366.15,979.12 1368.83,971.59"/>
        <lane id=":1210029201_6_3" index="3" speed="15.28" length="8.00" shape="1369.16,980.20 1371.85,972.66"/>
    </edge>
    <edge id=":1210029201_10" function="internal">
        <lane id=":1210029201_10_0" index="0" speed="6.84" length="18.80" shape="1369.16,980.20 1374.65,976.11 1378.87,975.59 1381.81,978.66 1382.65,982.01"/>
    </edge>
    <edge id=":1210029201_12" function="internal">
        <lane id=":1210029201_12_0" index="0" speed="6.84" length="3.39" shape="1382.65,982.01 1383.47,985.30"/>
    </edge>
    <edge id=":1210032500_0" function="internal">